/ PSSE 344 Dynamic data at: 20/07/2021 18:00:37
'BASSLINK','USRDCL','CDCBL3',18,1,20,116,69,96,729999,1,
              350000,0,703081,500,1,0,1,1,
              1,0,0,1,0,0,0,0,
              0,0,0.05,250.0,0.05,250.0,119.3,119.4,
              33.5,0.0,0.0,250.0000,500.0,0.0001,5.0,-4.0,
              0.03,2.0,-3.0,5.0,0.01,0.05,40.0,20.0,
              656.0,500.0,50.0,400.0,1640.0,125.0,0.01,0.923,
              0.913,0.936,0.0001,0.001,0.0005,0.0,0.0015,0.035,
              0.0,0.03,0.08,0.2,0.0,0.0001,0.001,0.0005,
              0.0,0.0015,0.035,0.0,0.03,0.08,0.2,0.0,
              0.0,3.0,5.0,0.0,0.05,0.1,0.45,3.0,
              1.5,1.0045,1.05,1.17,1.15,1.1,0.936,1.054,
              0.977,0.32,0.56,0.72,0.88,0.24,0.48,0.64,
              0.84,1.0,15.0,0.07,0.0,3.0,5.0,0.0,
              0.05,0.1,0.45,3.0,1.5,1.02,1.09,1.17,
              1.15,1.1,1.0,1.09,1.02,0.48,0.88,2.0,
              2.0,0.48,0.88,2.0,2.0,1.0,15.0,0.07,
              9.99,0.01,9.99,9.99,0.01,9.99/BLLC
21262,'USRSWS','CARMID',24,1,15,79,29,51,211694,211620,
              211694,2,211620,0,0,0,0,1,
              0,0,211620,211694,2,100,0.0011364,0.072384,
              0.007,0.003,0,0.002,2.905,-1.226,2.40,-1.345,
              0.65,0.7,0.04,0.02,1.33,0.0,0.1,0.0,
              1000000.0,3.02,0.0,5.0,1.0,0.0,1000000.0,-1.738,
              0.0,2.6315,1.000,1.000,0.4,0.0,0.0,1000.0,
              0.012,0.012,0.024,0.024,0.012,0.012,1.0,0.5,
              0.0,-0.5,-1.0,0.2,0.04,0.6,0.6,10,
              10,0.15,0.04,0.6,0.6,10,5,0.02,
              -0.02,1.0,28.33,139.4,1.0,5.726,8.197,1,
              1,1,1,1,1,-2,-1,2,
              1,-0.92,0.08,0.1/ARMIDALE
31001,'USRSWS','CROWVILLE2',24,1,45,113,28,74,367081,367081,
              367020,2,0,367081,367020,0,0,3,
              0,0,0,0,0,0,0,0,
              0,1,0,0,1,367083,367081,-1,
              0,0,0,0,0,0,0,0,
              0,0,0,0,0,0,0,0,
              0,0,0,100,1400,0.12,0.001,0.003,
              0.03,0.03,0,0.002,0.9999288,-0.61448211,0.8928,-0.6634,
              1.22,1,1.22,0.8,0.85,100,0.02,0,
              0.3,0.8,0.1,0.1953,0.015,1.18,0,1,
              0,1000000,100,0,10,0,0,1000000,
              -100,0,10,0,0,-1000000,-0.882,0,
              1,0.6975,0,0,0.1953,0,0,1000,
              0.5,-0.3,1.05,0.95,1600,0.05,-0.05,0.1,
              0.12,0.05,0.001,1,100,2.5,3,0,
              0.1,-100,2.5,3,0,-0.1,10,0.1667,
              1,0.5,0.5,0.19,0.677,0.19,0.677,0.19,
              0.677,212.8,0.1,-0.1,6,50,0.5,3,
              100,0.25,0.5,0.3,-50,3,0.5,-100,
              0.5,100,0,1,0,1000000,0,0,
              0,0,0,0/ROTS
215201,'GENROE',1,8.226300,0.060800,1.954000,0.178000,3.200000,0.0000,2.135000,1.603000,
              0.313100,1.081000,0.198000,0.188000,0.094000,0.363000/BAYSWATR
215201,'USRMDL',1,'ZNSWAV',4,0,2,19,5,0,1,1,
              1.0000,0.0000,0.0000,0.0200,0.1200,0.5100,0.3200,500.0000,
              1.0000,0.0120,1.0000,0.0000,0.1400,9999.0000,-9999.0000,28.0000,
              -18.0000,10.5000,-6.0000/BAYSWATR
215201,'USRMDL',1,'ZNSWPS',3,0,4,16,7,0,1,0,
              3,0,10.9960,-0.4300,0.0100,0.0100,5.6100,5.6100,
              1.0000,1.0000,1.0000,1.0000,1.0000,1.0000,0.0500,-0.0500,
              10.0000,10.0000/BAYSWATR
215202,'GENROE',2,8.226300,0.060800,1.953700,0.177700,3.200000,0.0000,2.135000,1.603000,
              0.313100,1.081000,0.198000,0.188000,0.094000,0.363000/BAYSWATR
215202,'LOEXR1T',2,5.0,0.99683794,90.0,-0.63644269,25.0,1.87865613,90.0,-1.07735178,
              0.0,0.0,0.0,0.0,10.0,0.50/BAYSWATR
215202,'USRMDL',2,'BAYGOV',5,0,0,14,7,2,25.0,0.12,
              0.044,1.06,-0.05,0.99,0.56,0.28,12.5,0.13,
              0.29,0.54,0.43,660.00/BAYSWATR
215202,'USRMDL',2,'BAYLDC',23,0,1,29,10,6,0,7,
              -7,0.6,0.6,0.003,25.00,660,22.5,30,
              10,7.7,20,0.02,1.5,0.001,0.47,12,
              1.05,-0.05,0.6,1,0,0.785,5,0.05,
              0.0376,1.24,-1.9,0.05/BAYSWATR
215202,'USRMDL',2,'BAYPSEXCV2',4,0,0,18,5,8,0.02,0,
              500,0.32,0.83,0.012,10.5,-6,0.14,1,
              1,1.05,0.17,5.44,1,10.6,0,-1/BAYSWATR
215202,'USRMDL',2,'BAYPSOELV2',10,0,0,8,2,2,1,3.15,
              0.05,40,0.12,10,0,-1/BAYSWATR
215202,'USRMDL',2,'BAYPSPSSV2',3,0,1,9,5,3,1,1,
              10.996,0.01,0.4299,0.01,5.61,10,0.05,-0.05/BAYSWATR
215202,'USRMDL',2,'BAYPSUELV2',9,0,1,34,5,3,0,1,
              0.03,0.03,0.03,0.03,2,2,2.72,1,
              10.6,1,0,0,0.180412,0.850515,1,0,
              0,0,0,0,0,0,-0.409893,-0.399485,
              -0.360825,-0.352201,0,0,0,0,0,0,
              0/BAYSWATR
215203,'GENROE',3,8.006800,0.041400,0.220000,0.114900,3.200000,0.0000,1.820000,1.820000,
              0.292900,0.207600,0.207500,0.188000,0.000000,0.000000/BAYSWATR
215203,'USRMDL',3,'ZNSWAV',4,0,2,19,5,0,1,1,
              1.0000,0.0000,0.0000,0.0200,0.1200,0.5100,0.3200,500.0000,
              1.0000,0.0120,1.0000,0.0000,0.1400,9999.0000,-9999.0000,28.0000,
              -18.0000,10.5000,-6.0000/BAYSWATR
215203,'USRMDL',3,'ZNSWPS',3,0,4,16,7,0,1,0,
              3,0,10.9960,-0.4300,0.0100,0.0100,5.6100,5.6100,
              1.0000,1.0000,1.0000,1.0000,1.0000,1.0000,0.0500,-0.0500,
              10.0000,10.0000/BAYSWATR
215204,'GENROE',4,8.000000,0.039000,1.700000,0.070000,3.091000,0.0000,2.110000,2.000000,
              0.309000,0.494000,0.257000,0.221000,0.177000,0.307000/BAYSWATR
215204,'USRMDL',4,'BAYAVR',4,0,5,18,5,48,215204,4,
              0,0,'1',0.4,0.5,80.0,30.0,0.03,
              0.3,-0.3,10.87,-7.95,10.87,-7.95,0.357,1.1,
              1.05,0.5,-0.045373,0.1293,0.02/BAYSWATR
215204,'USRMDL',4,'BAYGOV',5,0,0,14,7,2,25.0,0.12,
              0.044,1.06,-0.05,0.99,0.56,0.28,12.5,0.13,
              0.29,0.54,0.43,686.37/BAYSWATR
215204,'USRMDL',4,'BAYLDC',23,0,1,29,10,6,0,7,
              -7,0.6,0.6,0.003,24.46,700,22.5,30,
              10,7.7,20,0.02,1.5,0.001,0.47,12,
              1.05,-0.05,0.6,1,0,0.785,5,0.05,
              0.0376,1.24,-1.9,0.05/BAYSWATR
215204,'USRMDL',4,'BAYOEL',10,0,3,11,1,48,0,0,
              0,0.32646,1.05,2,1.05,0.75,3,1.00,
              3.0362,0.45,0.3,-0.3/BAYSWATR
215204,'USRMDL',4,'BAYPSS',3,0,0,32,22,1,5,5,
              5,0,0.94061,0.02,0.158,0.02,0,5,
              0.5,0.1,0.159,0.667,6,0.8088,1,5,
              1,0.05,-0.05,10,-10,10,-10,0.0,
              0.0,1,0.01,0.005,314,0.494/BAYSWATR
215204,'USRMDL',4,'BAYUEL',9,0,0,9,1,3,0.5,0.34,
              0.125,0.34,0.125,0.3,-0.3,0.3,1/BAYSWATR
216801,'COMP',1,0.00510/BENDEELA
216801,'GENSAL',1,6.037500,0.074900,0.2360,3.95000,0.0000,1.070000,0.58300,0.236500,
              0.18050,0.14500,0.0000,0.0000/BENDEELA
216801,'IVOEX',1,121.0900,1.0000,1.0000,0.0000,0.0320,9999.0000,-9999.0000,1.0000,
              1.0000,1.0000,0.4500,1.2500,2.8100,-2.8100,1.0000,1.0000,
              1.0000,0.0000,0.0130,2.8000,-2.0000/BENDEELA
216801,'COMP',2,0.00510/BENDEELA
216801,'GENSAL',2,6.037500,0.074900,0.2360,3.95000,0.0000,1.070000,0.58300,0.236500,
              0.18050,0.14500,0.0000,0.0000/BENDEELA
216801,'IVOEX',2,121.0900,1.0000,1.0000,0.0000,0.0320,9999.0000,-9999.0000,1.0000,
              1.0000,1.0000,0.4500,1.2500,2.8100,-2.8100,1.0000,1.0000,
              1.0000,0.0000,0.0130,2.8000,-2.0000/BENDEELA
217801,'USRMDL',1,'EMSPCH9',107,0,50,108,13,26,217640,217830,
              217833,2,2,0,4,1,3,3,
              217801,0,0,0,0,0,0,0,
              0,0,0,0,0,0,0,0,
              0,0,0,0,0,0,0,0,
              0,0,0,0,0,0,0,0,
              0,0,0,0,0,0,0,0,
              0.131,0.131,0.131,0.006,0.040,0.886,0.03800,0.0,
              -1.000,0.5,0,0.2,0,0,0.886,0.0000000,
              0.1000000,0.1,0.330,1.867,1,0,0.001,7,
              0,0,0.330,1.867,20.0,1.15,0.35000000,-0.35000000,
              1.0,0.35000000,-0.35000000,0.9500,0.35000000,-0.35000000,0.94,0.35000000,
              -0.35000000,0.0,0.35000000,-0.35000000,0.020,0.02,0.020,0.318,
              0.5300,0.318,0,1.100,1.000,0.900,0.886,0.35000000,
              -0.35000000,0.500,0.35000000,-0.35000000,0.000,0.35000000,-0.35000000,0.000,
              0.35000000,-0.35000000,0.000,0.35000000,-0.35000000,0.000,0.35000000,-0.35000000,
              0.886,0.35000000,-0.35000000,0.500,0.35000000,-0.35000000,0.000,0.35000000,
              -0.35000000,0.000,0.35000000,-0.35000000,0.000,0.35000000,-0.35000000,0.000,
              0.35000000,-0.35000000,0.886,0.35000000,-0.35000000,0.500,0.35000000,-0.35000000,
              0.000,0.35000000,-0.35000000,0.000,0.35000000,-0.35000000,0.000,0.35000000,
              -0.35000000,0.000,0.35000000,-0.35000000/BERYL_SF
217801,'USRMDL',1,'ING1BH9',101,1,10,85,19,48,217832,217801,
              1,1,217801,1,1,1,1,1,
              0.005,0.005,0.007,0.006,0.400,1.0,1.00,0,
              0,0.2,0,0.2,0,0,8,1,
              0,1,0,1,0,0,0,8,
              0.003,0.003,1,0.064,0.064,1.15,0.800,-0.800,
              1,0.800,-0.800,0.85,0.800,-0.800,0.0,1.40,
              0.3,1.3,4.0,1.18,2.1,0.38,2.4,0.74,
              11,0.80,0.1,1.042,620,1.042,620,1.010,
              0.1,0.938,620,0.938,620,0.990,0.80,0,
              0.55,1,0.00,1.0,0.0,1.0,1,0,
              1,0,1,0,0,0,0.55,0,
              0.80,1,1,0.42,1.0/BERYL_SF
218301,'USRMDL',3,'SMAPPC125',4,0,54,120,20,70,218340,281640,
              1,0,0,0,0,0,0,0,
              0,0,0,0,0,0,0,0,
              0,0,0,0,0,0,0,0,
              0,0,0,0,0,0,0,0,
              0,0,0,0,0,0,0,0,
              0,0,0,0,0,0,0,0,
              0,0,0,0,3.0,0.0,1.5,0.04,
              0.0,0.0,5.0,0.04,0.0,0.0,1.03,0.0,
              0.15,0.1030,0.0,1.0,0.04,0.0,1.00,0.1,
              0.1,-0.47,0.47,0.86,0.86,1.17,1.17,0.3,
              1.0,0.0,1.3,0.04,0.0,0.5,121,121,
              1.0,0.15,0.05,0.5,0.01,0.0,0.0,0.0,
              0.0,47.9,48.9,49.9,50.00,50.00,50.2,51.2,
              52.15,1.0,0.5,0.0,0.0,0.0,0.0,-0.5,
              -1.0,0.0,0.01,0.01,0.0,1.0,1.0,0.0,
              0.0,0.0,0.8,0.9,0.95,0.99,1.01,1.05,
              1.1,1.2,0.5,0.4,0.2,0.0,0.0,-0.3,
              -0.5,-0.6,-0.33,0.33,-0.33,0.33,0.0,1.0,
              0.0,0.0,0.0,0.0,0.0,0.0,0.0,0.0,
              0.0,0.0,0.0,0.0,0.0,0.0,0.0,0.0,
              0.0,0.0,0.0,0.0,0.0,0.0,0.0,0.0,
              0.0,0.0,0.0,0.0/BOMEN_SF
218301,'USRMDL',3,'SMASC155',1,1,0,160,40,200,1.0,0.9,
              0.0,0.80,1.0,0.0,1.0,0.0,0.4,1.0,
              0.0,5.0,0.5,2.0,0.0,0.90,0.5,1.0,
              0.90,0.90,0.0,0.15,0.15,0.5,1.0,1.0,
              2.0,0.0,2.0,3.5,0.18,0.18,0.155,0.16,
              3.33,1.00,0.00,0.0,1.0,0.0,0.5,0.6,
              0.7,0.0,0.13,0.1,1.4,0.10,1.4,0.1,
              1.29,1.0,1.2,3,1.15,2.8,0.8,4.8,
              0.8,4.8,0.5,4.8,0.4,1.8,0.0,1.8,
              52.6,2.0,53,2,52.6,2,52.6,2,
              51.6,122,51.1,602,48.9,602,48.4,122,
              46.4,2,46.4,2,46.4,2,46.4,2.0,
              30.0,1.0,50.0,30.0,0.0,1.0,10.0,30.0,
              0.0,1.0,1.0,0.0,0.0,3600.0,0.9,0,
              0.050,0.0,0.9,1.0,1.0,1.0,0.0,1.0,
              1.0,2.0,2.0,0.0,0.0,0.0,0.85,0.92,
              1.0,1.08,1.15,2.0,0.1,2.0,2.5,1.0,
              2.0,0.5,1.00,1.0,0.0,0.0,0.0,0.0,
              0.0,0.0,0.0,0.0,0.0,0.0,0.0,0.0,
              0.0,0.0,0.0,0.0,0.0,0.0,0.0,0.0,
              0.0,0.0,0.0,0.0,0.0,0.0/BOMEN_SF
218501,'USRMDL',1,'GEWTA0703',5,0,7,84,21,62,7,1,
              2,1,0,0,0,3.43000,33.0000,0.62000,
              2.10000,1.50000,182.31000,1.11000,5.00000,2.00000,2.50000,9999.00000,
              -9999.00000,0.02500,25.0000,1.00000,0.000000,800.00000,870.00000,0.00000,
              500.00000,1.00000,0.27270,-0.27270,30.00000,30.00000,-0.00330,0.00330,
              0.00000,0.05000,0.25000,-0.00340,25.00000,25.00000,0.10000,0.15000,
              0.80000,1.00000,1.10000,0.60000,1.00000,1.00000,1.02000,0.50000,
              50.15000,51.75000,52.15000,55.00000,0.00000,80.00000,100.00000,100.00000,
              49.85000,48.00000,47.50000,45.00000,0.00000,0.00000,0.00000,0.00000,
              0.05,1,5.00000,0.03200,0.04000,0.05000,0.064,-0.064,
              0.80000,1.00000,0.00000,0.01000,0.02000,99.00000,-99.0000,0.00000,
              0.02000,0.027,-0.027,11.00000,137.00000,0.05000,3.00000,0.05000,
              3.00000/BODANGWF
218501,'USRMDL',1,'GEWTE0703',4,0,11,73,16,293,218540,4,
              1,0,1,218540,293140,1,4,1,
              0,0.010000000,1.1000,0.90000,1.1100,1.7000,10.000,0.20000,
              66.000,1.2000,0.45000,0.033000000,1.0000,0.10000,0.015000000,0.050000000,
              0.015000000,0.050000000,0.20000,0.020000000,0.015000000,0.15000,5.0000,0.020000000,
              0.20000,0.22000,0.00000,1.000,0.007000000,0.050000000,0.0000,0.0000,
              0.12700,0.15000,0.0000,-0.10000,0.10000,0.8000,3.00000,0.30000,
              0.15000,0.0000,0.15000,0.002000000,-0.002000000,0.48400,-0.48400,0.48400,
              -0.48400,0.010000000,0.45000,1.1000,1.1000,0.60000,0.60000,-1.0000,
              -1.0000,-0.60000,-0.60000,-0.60000,-0.60000,-1.3000,-1.3000,0.0000,
              0.80000,0.90000,1.1000,1.2000,1.3000,1.1000,0.90000,0.13000,
              0.13000,0.010000000/BODANGWF
218501,'USRMDL',1,'GEWTG0703',1,1,30,59,11,29,218530,1,
              0,0,0,0,0,0,0,0,
              0,0,0,0,0,0,0,0,
              0,0,0,0,0,0,0,0,
              0,0,0,0,1.0000,1.0000,60.000,0.050000000,
              0.0000,0.0000,-1.5000,1.5000,20.000,3.0000,0.90000,1.1000,
              0.70000,1.5000,5.0000,0.020000000,0.0000,0.50000,0.90000,1.0000,
              0.0000,0.0000,1.2300,1.2300,100.00,0.10000,0.050000000,0.10000,
              3.5000,0.050000000,1.0000,0.70000,5.0000,2.50000,0.60000,5.0000,
              1.7000,0.40000,1.1010,300.00,0.00000,1.1500,30.000,0.00000,
              1.2000,2.0000,0.00000,1.2500,0.5000,0.0000,1.4000,0.0300,
              47.000,53.000,60.000,45.000,55.000,0.1000,0.10000/BODANGWF
218801,'GENSAL',1,2.486040,0.058570,0.3000,3.10000,0.0000,1.400000,1.00000,0.345930,
              0.23250,0.19500,0.0000,0.0000/BLOWERG
218801,'SEXS',1,0.0000,0.1000,100.0000,0.0000,0.0000,5.0000/BLOWERG
219101,'USRMDL',1,'GEWGC7',106,0,1,6,0,4,0,9999.0,
              5.0000,30.000,9999.0,9999.0,30.000/BOCOROCK
219101,'USRMDL',1,'GEWTA7',105,0,1,9,1,4,0,20.000,
              0.0000,27.000,-4.0000,0.0000,1.2250,50.000,111.52,1500.0/BOCOROCK
219101,'USRMDL',1,'GEWTE7',102,0,12,67,18,12,219140,0,
              0,1,1,0,0,0,0,1,
              0,0,0.15000,6.00000,5.25000,0.0000,0.0000,0.050000000,
              3.0,0.60000,1.1200,0.040000000,0.43600,-0.43600,1.1000,0.020000000,
              0.45000,-0.45000,60.000,0.10000,0.90000,1.1000,40.000,0.50000,
              1.4500,0.050000000,0.050000000,1.0000,0.15000,0.96000,0.99600,1.0040,
              1.04000,0.9999,0.99990,0.99990,0.40000,0.9999,0.20000,1.0000,
              0.25000,-1.0000,3.0000,25.000,3.0000,-0.90000,8.0000,0.2000,
              10.000,1.0000,1.7000,1.22,1.2500,5.0000,0.0000,0.0000,
              0.000,0.002500000,1.0000,5.5000,0.10000,-1.0000,0.10000,0.0000,
              0.10000,-0.10000,0.70000,0.12000,-0.12000/BOCOROCK
219101,'USRMDL',1,'GEWTG7',101,1,31,43,3,13,0,9,
              0,0,219101,1,0,0,0,0,
              0,0,0,0,0,0,0,0,
              0,0,0,0,0,0,0,0,
              0,0,0,0,0,1.7000,0.80000,0.50000,
              0.90000,1.2200,1.2000,2.0000,0.40000,0.80000,10.000,0.020000000,
              0.0000,0.0000,0.50000,0.16700,0.90000,0.92500,0.0000,0.20000,
              1.1000,1.00000,0.40000,99.0000,1.70000,0.60000,99.0000,2.20000,
              0.75000,99.0000,3.0000,0.00000,1.1500,0.5000,0.00000,1.2000,
              0.1000,47.0,52.0,1.0,0.0,0.0,-1.0,0.080/BOCOROCK
219101,'USRMDL',1,'GEWTP7',104,0,1,10,3,3,0,0.30000,
              150.00,25.000,3.0000,30.000,-4.0000,27.000,-10.000,10.000,
              1.0000/BOCOROCK
219101,'USRMDL',1,'GEWTT7',103,0,1,5,4,3,0,4.3500,
              0.0000,0.0000,1.8800,2.3000/BOCOROCK
219102,'USRMDL',1,'GEWGC7',106,0,1,6,0,4,0,9999.0,
              5.0000,30.000,9999.0,9999.0,30.000/BOCOROCK
219102,'USRMDL',1,'GEWTA7',105,0,1,9,1,4,0,20.000,
              0.0000,27.000,-4.0000,0.0000,1.2250,50.000,111.52,1500.0/BOCOROCK
219102,'USRMDL',1,'GEWTE7',102,0,12,67,18,12,219140,0,
              0,1,1,0,0,0,0,1,
              0,0,0.15000,6.00000,5.25000,0.0000,0.0000,0.050000000,
              3.0,0.60000,1.1200,0.040000000,0.43600,-0.43600,1.1000,0.020000000,
              0.45000,-0.45000,60.000,0.10000,0.90000,1.1000,40.000,0.50000,
              1.4500,0.050000000,0.050000000,1.0000,0.15000,0.96000,0.99600,1.0040,
              1.04000,0.9999,0.99990,0.99990,0.40000,0.9999,0.20000,1.0000,
              0.25000,-1.0000,3.0000,25.000,3.0000,-0.90000,8.0000,0.2000,
              10.000,1.0000,1.7000,1.22,1.2500,5.0000,0.0000,0.0000,
              0.000,0.002500000,1.0000,5.5000,0.10000,-1.0000,0.10000,0.0000,
              0.10000,-0.10000,0.70000,0.12000,-0.12000/BOCOROCK
219102,'USRMDL',1,'GEWTG7',101,1,31,43,3,13,0,58,
              0,0,219102,1,0,0,0,0,
              0,0,0,0,0,0,0,0,
              0,0,0,0,0,0,0,0,
              0,0,0,0,0,1.7000,0.80000,0.50000,
              0.90000,1.2200,1.2000,2.0000,0.40000,0.80000,10.000,0.020000000,
              0.0000,0.0000,0.50000,0.16700,0.90000,0.92500,0.0000,0.20000,
              1.1000,1.00000,0.40000,99.0000,1.70000,0.60000,99.0000,2.20000,
              0.75000,99.0000,3.0000,0.00000,1.1500,0.5000,0.00000,1.2000,
              0.1000,47.0,52.0,1.0,0.0,0.0,-1.0,0.080/BOCOROCK
219102,'USRMDL',1,'GEWTP7',104,0,1,10,3,3,0,0.30000,
              150.00,25.000,3.0000,30.000,-4.0000,27.000,-10.000,10.000,
              1.0000/BOCOROCK
219102,'USRMDL',1,'GEWTT7',103,0,1,5,4,3,0,4.3500,
              0.0000,0.0000,1.8800,2.3000/BOCOROCK
219600,'COMP',1,0.16000/BRKNHILL
219600,'CSVGN1',1,4920.0000,0.0000,1.0000,100.0000,1.0000,0.0000,0.0000,1.0000,
              0.0000,25.0000/BRKNHILL
219601,'GENROU',1,5.3910,0.02230,0.2620,0.0743,6.7000,0.0000,2.2500,2.1200,
              0.2617,0.8451,0.1775,0.1550,0.0000,0.0000/BRKNHILL
219601,'USRMDL',1,'ZABBX2',4,0,2,19,5,0,1,2,
              1.0000,0.0200,0.0000,0.0340,0.0000,20.3000,6.6000,373.0000,
              1.0000,0.0000,1.0000,0.0000,0.0000,8.0000,0.0000,999.0000,
              -999.0000,999.0000,-999.0000/BRKNHILL
219602,'GENROU',2,5.3910,0.02230,0.2620,0.0743,6.7000,0.0000,2.2500,2.1200,
              0.2617,0.8451,0.1775,0.1550,0.0000,0.0000/BRKNHILL
219602,'USRMDL',2,'ZABBX2',4,0,2,19,5,0,1,2,
              1.0000,0.0200,0.0000,0.0340,0.0000,20.3000,6.6000,373.0000,
              1.0000,0.0000,1.0000,0.0000,0.0000,8.0000,0.0000,999.0000,
              -999.0000,999.0000,-999.0000/BRKNHILL
219623,'COMP',2,0.16000/BRKNHILL
219623,'CSVGN1',2,4920.0000,0.0000,1.0000,100.0000,1.0000,0.0000,0.0000,1.0000,
              0.0000,25.0000/BRKNHILL
220003,'USRMDL',1,'CHVDCL',1,0,5,7,4,7,0,0,
              0,0,1,0.0500,1.0000,2.4000,0.0100,0.0100,
              1.0000,0.0500/BNGALORA
220003,'USRMDL',1,'PWRHL2',5,0,3,4,2,10,258402,1,
              0,160.0000,7.4000,0.0500,0.0500/BNGALORA
220003,'USRMDL',2,'CHVDCL',1,0,5,7,4,7,0,0,
              0,0,1,0.0500,1.0000,2.4000,0.0100,0.0100,
              1.0000,0.0500/BNGALORA
220003,'USRMDL',2,'PWRHL2',5,0,3,4,2,10,258402,2,
              0,160.0000,7.4000,0.0500,0.0500/BNGALORA
220003,'USRMDL',3,'CHVDCL',1,0,5,7,4,7,0,0,
              0,0,1,0.0500,1.0000,2.4000,0.0100,0.0100,
              1.0000,0.0500/BNGALORA
220003,'USRMDL',3,'PWRHL2',5,0,3,4,2,10,258402,3,
              0,160.0000,7.4000,0.0500,0.0500/BNGALORA
220101,'USRMDL',1,'FSPPCA',5,0,20,34,7,32,2,1,
              219628,219628,220101,219628,'1',33,0,0,
              220101,1,220102,1,0,0,0,0,
              0,0,0.100000000,0.333300000,0.100000000,0.333300000,0.15,0.15,
              0.0,0.02,0.02,0.02,-0.43750000,0.43750000,0.0,0.761363636,
              -1.0,1.0,-1.0,1.0,-0.473480000,0.473480000,-0.004730000,0.004730000,
              10.000000000,10.000000000,0.00,0.00,6.567164179,6.567164179,0.3,100.0,
              0.9,1.1,0.00999,0.06222/BRKNH_SF
220101,'USRMDL',1,'SMASC126BH',1,1,0,73,15,193,1.0,1.0,
              -0.133775,0.985,1.0,1.0,1.0,0.0,5.0,0.4375,
              2.0,0.0,0.9,0.5,1.0,0.9,0.9,0.0,
              0.5,0.05,1.0,1.0,1.0,0.0,2.0,2.0,
              2.0,0.15,0.13,0.2,0.18,0.1,0.2,0.01,
              0.0,20.0,0.0,0.7,0.72,0.0,0.15,0.1,
              1.3,0.002,1.15,3.0,1.15,3.0,0.85,10.0,
              0.75,2.0,0.2,1.2,52.0,1.0,51.0,120.0,
              50.5,600.0,49.5,600.0,49.0,120.0,47.0,2.0,
              30.0,1.0,10.0,30.0,0.0,10.0,1.0/BRKNH_SF
220102,'USRMDL',1,'SMASC126BH',1,1,0,73,15,193,1.0,1.0,
              -0.133775,0.985,1.0,1.0,1.0,0.0,5.0,0.4375,
              2.0,0.0,0.9,0.5,1.0,0.9,0.9,0.0,
              0.5,0.05,1.0,1.0,1.0,0.0,2.0,2.0,
              2.0,0.15,0.13,0.2,0.18,0.1,0.2,0.01,
              0.0,20.0,0.0,0.7,0.72,0.0,0.15,0.1,
              1.3,0.002,1.15,3.0,1.15,3.0,0.85,10.0,
              0.75,2.0,0.2,1.2,52.0,1.0,51.0,120.0,
              50.5,600.0,49.5,600.0,49.0,120.0,47.0,2.0,
              30.0,1.0,10.0,30.0,0.0,10.0,1.0/BRKNH_SF
220801,'GENSAE',1,11.810000,0.024000,0.154000,1.230000,0.000000,1.920000,0.808000,0.226000,
              0.136000,0.106000,0.120000,0.150000/BURONGA
220801,'USRMDL',1,'UNITROL1000AVR',4,0,2,21,14,27,0,0,
              -0.05,45,2.90,10,2.5,5,1.0,3,
              0.3000,11.35,-11.35,0.61,0.2,1,0.310,19.54,
              0,4.6,0.0219,7.3,0.023/BURONGA
220801,'USRMDL',1,'UNITROL1000OEL',10,0,3,23,5,23,1,0,
              1,1.6,10.0,1.3,30.0,1.10,50,60,
              75,70,50,80,5.4300,1.0,1.00,50,
              75,60,50,70,80,50.0,47.0,112.0/BURONGA
220801,'USRMDL',1,'UNITROL1000UEL',9,0,2,8,3,9,0,1,
              0.08,5.43,-49.0,-37.0,-25.0,-12.0,0.0,0.808/BURONGA
220802,'GENSAE',2,11.810000,0.024000,0.154000,1.230000,0.000000,1.920000,0.808000,0.226000,
              0.136000,0.106000,0.120000,0.150000/BURONGA
220802,'GENSAE',3,11.810000,0.024000,0.154000,1.230000,0.000000,1.920000,0.808000,0.226000,
              0.136000,0.106000,0.120000,0.150000/BURONGA
220802,'USRMDL',2,'UNITROL1000AVR',4,0,2,21,14,27,0,0,
              -0.05,45,2.90,10,2.5,5,1.0,3,
              0.3000,11.35,-11.35,0.61,0.2,1,0.310,19.54,
              0,4.6,0.0219,7.3,0.023/BURONGA
220802,'USRMDL',2,'UNITROL1000OEL',10,0,3,23,5,23,1,0,
              0,1.6,10.0,1.3,30.0,1.10,50,60,
              75,70,50,80,5.4300,1.0,1.00,50,
              75,60,50,70,80,50.0,0.0,0.0/BURONGA
220802,'USRMDL',2,'UNITROL1000UEL',9,0,2,8,3,9,0,1,
              0.08,5.43,-49.0,-37.0,-25.0,-12.0,0.0,0.808/BURONGA
220802,'USRMDL',3,'UNITROL1000AVR',4,0,2,21,14,27,0,0,
              -0.05,45,2.90,10,2.5,5,1.0,3,
              0.3000,11.35,-11.35,0.61,0.2,1,0.310,19.54,
              0,4.6,0.0219,7.3,0.023/BURONGA
220802,'USRMDL',3,'UNITROL1000OEL',10,0,3,23,5,23,1,0,
              0,1.6,10.0,1.3,30.0,1.10,50,60,
              75,70,50,80,5.4300,1.0,1.00,50,
              75,60,50,70,80,50.0,0.0,0.0/BURONGA
220802,'USRMDL',3,'UNITROL1000UEL',9,0,2,8,3,9,0,1,
              0.08,5.43,-49.0,-37.0,-25.0,-12.0,0.0,0.808/BURONGA
223201,'USRMDL',1,'S_SFSWT',1,1,20,250,0,200,421,2,
              1,1,1,1,1,1,1,1,
              1,1,1,1,1,1,1,1,
              1,1,0.0062,0.0919,5.2636,0.0069,0.0991,2.2912,
              0.0108,1.4099,60.4700,0.3,0.476,0,0.1697,0.0289,
              2.86,2.72,0.205,150,5,1560,150,25,
              10,37,-2,88,4.0,7,-7,16.8,
              1.180,98.9,0.9,1800,0.8,2.5,0.55,1.75,
              0.3,1.12,0.15,1.12,1.15,60,1.2,1,
              0.94,1,1.06,1,0.9,1.1,0,1,
              0,0,0.1,1,0.2,1,0.3,1,
              0.4,1,0.5,1,0.6,0.75,0.7,0.5,
              0.8,0.25,0.9,0,0.16,0.23,0,600,
              0,0,1,1,0,0,5,100,
              0,2,9,0,1,1,50,1,
              100,50,0,10,0.03171,20,0.8,0.55,
              0.3,1.15,1.15,0.7,8,12,14,0,
              0,0,0,0,0,3,0,0,
              0,3,0,1590,1590,1590,1590,1590,
              1590,1580,1580,1590,1580,1580,1580,20811,
              29272,34153,34154,19035,30506,37207,37208,19049,
              30510,36611,36612,0.7,0.7,0.7,40000,-200,
              14,0.02,4,0,0,5,1.75,4,
              6.55,4,1,7,0,8,-1,10,
              -1,12,0,16,6,25,15,0.2383,
              44.590,2.824,0,1,3,1,0.08,0.238,
              1.0393,2.1,1500,0.9524,0.92,44,0,0,
              0,0,0,0,0,0,0,0,
              0,0,0,0,0,0,0,0,
              0,0,0,0,0,0,10,30,
              0.021,-0.021,14,0,2,1,0.238,5,
              0.017,0,0,0.1,0.03,0.15,0,0,
              0,0,0,0,0,0,0,0,
              0,0,0,0,0,0,0,0,
              0,0,0,0/CAPITAL
223202,'USRMDL',2,'S_SFSWT',1,1,20,250,0,200,421,2,
              1,1,1,1,1,1,1,1,
              1,1,1,1,1,1,1,1,
              1,1,0.0062,0.0919,5.2636,0.0069,0.0991,2.2912,
              0.0108,1.4099,60.4700,0.3,0.476,0,0.1697,0.0289,
              2.86,2.72,0.205,150,5,1560,150,25,
              10,37,-2,88,4.0,7,-7,17.8,
              1.180,98.9,0.9,1800,0.8,2.5,0.55,1.75,
              0.3,1.12,0.15,1.12,1.15,60,1.2,1,
              0.94,1,1.06,1,0.9,1.1,0,1,
              0,0,0.1,1,0.2,1,0.3,1,
              0.4,1,0.5,1,0.6,0.75,0.7,0.5,
              0.8,0.25,0.9,0,0.16,0.23,0,600,
              0,0,1,1,0,0,5,100,
              0,2,9,0,1,1,50,1,
              100,50,0,10,0.03371,20,0.8,0.55,
              0.3,1.15,1.15,0.7,8,12,14,0,
              0,0,0,0,0,3,0,0,
              0,3,0,1590,1590,1590,1590,1590,
              1590,1580,1580,1590,1580,1580,1580,20811,
              29272,34153,34154,19035,30506,37207,37208,19049,
              30510,36611,36612,0.7,0.7,0.7,40000,-200,
              14,0.02,4,0,0,5,1.75,4,
              6.55,4,1,7,0,8,-1,10,
              -1,12,0,16,6,25,15,0.2383,
              44.590,2.824,0,1,3,1,0.08,0.238,
              1.0393,2.1,1500,0.9524,0.92,44,0,0,
              0,0,0,0,0,0,0,0,
              0,0,0,0,0,0,0,0,
              0,0,0,0,0,0,10,30,
              0.021,-0.021,14,0,2,1,0.238,5,
              0.017,0,0,0.1,0.03,0.15,0,0,
              0,0,0,0,0,0,0,0,
              0,0,0,0,0,0,0,0,
              0,0,0,0/CAPITAL
227403,'USRMDL',1,'SCHPPC_G163REV7C',4,0,15,75,7,213,227240,1,
              227440,227240,1,0,0,227240,0,227403,
              2,0,0,39,40,0.04,0.04,0.0001,
              0.04,0.5,180.0,0.1,0,1,0,0,
              0.005,0.1,1.0,-1.0,0.0,-0.5,1.5,-1.5,
              0.2,1.04,1.04,1,20,0.15,180.0,0.86,
              0.5,-0.5,1,0,1.5,0.01,2,0.395,
              -0.395,0.395,-0.395,0.395,-0.395,0.9,1,1.1,
              0,1.5,0.0,0.0,2.0,0.0,4,0.04,
              0.0,0.0,0.0,62,0.22,0.5,0.22,0.17,
              -0.12,0.8,1,2.3,1.0,-1.0,1.0,-1.0,
              1.0,-1.0,1.0,-1.0,0.0,0.1,0.9,1.0/COLMB_SF
227403,'USRMDL',1,'SE1INVT_A86REV9B',1,1,0,49,7,45,0,1,
              1,1,0.05,20,0.65,0.90,1.10,2.0,
              50,0.3,6.5,1.30,0.8,1.15,3,0.1,
              1,0.7,2,53,1.00,52.10,4.5,46.90,
              1,46.5,0.20,2,2,999,1.0,1.0,
              49.50,50.50,0,-0.40,50.20,50.1,49.50,50.0,
              1,1,0.2,-0.12,0,0.65,0.33/COLMB_SF
227601,'ESST1A',1,1,1,0.0200,1.0000,-1.0000,3.5000,100.0000,1.0000,
              1.0000,1977.0000,0.0018,6.8200,-5.9900,6.8200,-5.9900,0.0000,
              0.00000,1.0000,0.00000,0.0000/COLONGRA
227601,'GENROE',1,11.497400,0.017100,1.135600,0.018600,6.640000,0.0000,2.463000,2.294000,
              0.247900,0.455300,0.226200,0.145000,0.088000,0.478000/COLONGRA
227601,'IEEEVC',1,0.0000,-0.0530/COLONGRA
227601,'PSS2A',1,0,0,3,0,5,1,0.1000,0.1000,
              0.0100,3.0000,3.0000,2.00000,0.150000,0.0000,0.0000,0.1000,
              5.0000,1.1400,3.2000,5.30000,0.0100,0.0500,-0.0500/COLONGRA
227601,'USRMDL',1,'GT13E2',5,0,13,62,9,31,1,0,
              1,0,0,4,0,0,227691,227601,
              1,2,0,0.05,50.0,50.0,0.04,176.6,
              35.0,0.1467,2.0,3.5,0.015,0.001,0.0,0.4,
              0.35,-0.4,-0.35,8.0,0.5,1.0,40.0,0.0,
              0.8333,1.05,-31.5000,0.64,6.0,4.0,0.2,0.601,
              0.599,0.629,0.574,0.576,0.631,0.805,6.0,0.015,
              1.0,8.0,0.1,1.07,1.0,0.0,0.2063,1.259922,
              0.5,1.0,0.8,-0.1,1.1,30079.0,0.0,5001.0,
              0.0,0.0,16.0,0.3,10.0,0.0,0.14,1000000.0,
              0.0/COLONGRA
227602,'ESST1A',2,1,1,0.0200,1.0000,-1.0000,3.5000,100.0000,1.0000,
              1.0000,1977.0000,0.0018,6.8200,-5.9900,6.8200,-5.9900,0.0000,
              0.00000,1.0000,0.00000,0.0000/COLONGRA
227602,'GENROE',2,11.497400,0.017100,1.135600,0.018600,6.640000,0.0000,2.463000,2.294000,
              0.247900,0.455300,0.226200,0.145000,0.088000,0.478000/COLONGRA
227602,'IEEEVC',2,0.0000,-0.0530/COLONGRA
227602,'PSS2A',2,0,0,3,0,5,1,0.1000,0.1000,
              0.0100,3.0000,3.0000,2.00000,0.150000,0.0000,0.0000,0.1000,
              5.0000,1.1400,3.2000,5.30000,0.0100,0.0500,-0.0500/COLONGRA
227602,'USRMDL',2,'GT13E2',5,0,13,62,9,31,1,0,
              1,0,0,4,0,0,227691,227602,
              2,2,0,0.05,50.0,50.0,0.04,176.6,
              35.0,0.1467,2.0,3.5,0.015,0.001,0.0,0.4,
              0.35,-0.4,-0.35,8.0,0.5,1.0,40.0,0.0,
              0.8333,1.05,-31.5000,0.64,6.0,4.0,0.2,0.601,
              0.599,0.629,0.574,0.576,0.631,0.805,6.0,0.015,
              1.0,8.0,0.1,1.07,1.0,0.0,0.2063,1.259922,
              0.5,1.0,0.8,-0.1,1.1,30079.0,0.0,5001.0,
              0.0,0.0,16.0,0.3,10.0,0.0,0.14,1000000.0,
              0.0/COLONGRA
227603,'ESST1A',3,1,1,0.0200,1.0000,-1.0000,3.5000,100.0000,1.0000,
              1.0000,1977.0000,0.0018,6.8200,-5.9900,6.8200,-5.9900,0.0000,
              0.00000,1.0000,0.00000,0.0000/COLONGRA
227603,'GENROE',3,11.497400,0.017100,1.135600,0.018600,6.640000,0.0000,2.463000,2.294000,
              0.247900,0.455300,0.226200,0.145000,0.088000,0.478000/COLONGRA
227603,'IEEEVC',3,0.0000,-0.0530/COLONGRA
227603,'PSS2A',3,0,0,3,0,5,1,0.1000,0.1000,
              0.0100,3.0000,3.0000,2.00000,0.150000,0.0000,0.0000,0.1000,
              5.0000,1.1400,3.2000,5.30000,0.0100,0.0500,-0.0500/COLONGRA
227603,'USRMDL',3,'GT13E2',5,0,13,62,9,31,1,0,
              1,0,0,4,0,0,227690,227603,
              3,2,0,0.05,50.0,50.0,0.04,176.6,