10000 'GENCLS' 1 0 0/

/ Transformer OLTC Model
334081,'OLTC1T',334091,1,60,0.5,5 /

/ SMAHYCF-G21
@!/BUSNO                                   MODEL                                   ModelName                               IC                                      IT                                      
   334081                                  'USRBUS'                                'SMAHYCF21'                             504                                     0                                       
@!/NoOfICONS                               NoOfCONS                                NoOfStates                              NoOfVars                                RBus                                    
   34                                      262                                     10                                      453                                     334081                                     
@!/Frobus                                  ToBus                                   CID                                     FrtBusNumber                            PowerFlowReverse                        
   334081                                  334090                                  -1                                      0                                       1                                       
@!/Reserved                                OUTPUT_LOG_EN                           Reserved                                SysCfg                                  PV1_Fro                                 
   0                                       0                                       0                                       3                                       334094                                     
@!/PV1_To                                  CID_PV1                                 PV2_Fro                                 PV2_To                                  CID_PV2                                 
   334092                                  -1                                      0                                       0                                       -1                                      
@!/PV3_Fro                                 PV3_To                                  CID_PV3                                 PV4_Fro                                 PV4_To                                  
   0                                       0                                       -1                                      0                                       0                                       
@!/CID_PV4                                 BESS1_Fro                               BESS1_To                                CID_BESS1                               BESS2_Fro                               
   -1                                      334095                                  334093                                  -1                                      0                                       
@!/BESS2_To                                CID_BESS2                               BESS3_Fro                               BESS3_To                                CID_BESS3                               
   0                                       -1                                      0                                       0                                       -1                                      
@!/BESS4_Fro                               BESS4_To                                CID_BESS4                               CycleTime                               Poi_freq_flt_tm                         
   0                                       0                                       -1                                      40                                      0.02                                    
@!/Poi_power_flt_tm                        HyconToInv_AtPwr_TmDelay                HyconToInv_RtPwr_TmDelay                PvPwrAtMaxTot                           PvPwrRtMaxTot                           
   0.02                                    0.02                                    0.02                                    151200                                  90720                                   
@!/BESSPwrAtMaxTot                         BESSPwrRtMaxTot                         ExtPwrApLim                             ExtPwrAtLimHi                           ExtPwrAtLimLo                           
   176000                                   176000                                   327200                                  119000                                  -100000                                 
@!/PwrAtLimSale                            ExtPwrRtLimHi                           ExtPwrRtLimLo                           QVARScale                               PvPwrAtSpt                              
   119000                                   47005                                   -47005                                  0.6                                     151200                                       
@!/Reserved                                Reserved                                Reserved                                BatPwrAtCtrl.CtrlKi                     BatPwrAtCtrl.CtrlKp                     
   0                                       0                                       0                                       1.0                                     0                                       
@!/BatPwrAtCtrl.DynSpntSwitchHysPc         BatPwrAtCtrl.Ena                        BatPwrAtCtrl.EnaAdapCtrl                BatPwrAtCtrl.EnaDynSpntSwitch           BatPwrAtCtrl.EnaStepReset               
   0                                       0                                       0                                       0                                       0                                       
@!/BatPwrAtCtrl.FeedForwardOffset          BatPwrAtCtrl.MeasFilterTm               BatPwrAtCtrl.OvershootResetPc           BatPwrAtCtrl.PiCtrlLimPc                BatPwrAtCtrl.PilotControlGain           
   0                                       0                                       100                                     100                                     0                                       
@!/BatPwrAtCtrl.SpntDelaySamples           BatPwrAtCtrl.StepResetThrsldPc          Dispatch.EnaPrioBatPwrAt                Dispatch.PvBatSpntSplitPc               Dispatch.PwrRtDispatchMode              
   3                                       20                                      1                                       46.21                                      0                                       
@!/EgyShift.ChrFromPvSpntLimPc             EgyShift.DisBatSpntLimPc                FCASCont.DelayedActTm                   FCASCont.DelayedDelTm                   FCASCont.Ena                            
   50                                      10                                      60                                      600                                     1                                       
@!/FCASCont.EnaDelayedLower                FCASCont.EnaDelayedRaise                FCASCont.EnaFastLower                   FCASCont.EnaFastRaise                   FCASCont.EnaSlowLower                   
   1                                       1                                       1                                       1                                       1                                       
@!/FCASCont.EnaSlowRaise                   FCASCont.FastDelTm                      FCASCont.FrqOffsets[1]                  FCASCont.FrqOffsets[2]                  FCASCont.FrqOffsets[3]                  
   1                                       60                                      -2.015                                  -0.015                                  0.015                                   
@!/FCASCont.FrqOffsets[4]                  FCASCont.FrqOffsets[5]                  FCASCont.FrqOffsets[6]                  FCASCont.FrqOffsets[7]                  FCASCont.FrqOffsets[8]                  
   2.015                                   2.3                                     2.4                                     2.5                                     2.6                                     
@!/FCASCont.FrqOffsets[9]                  FCASCont.FrqOffsets[10]                 FCASCont.FrqRecoverOffsets[1]           FCASCont.FrqRecoverOffsets[2]           FCASCont.PwrAtDataPc[1]                 
   2.7                                     2.8                                     -0.015                                  0.015                                   100                                    
@!/FCASCont.PwrAtDataPc[2]                 FCASCont.PwrAtDataPc[3]                 FCASCont.PwrAtDataPc[4]                 FCASCont.PwrAtDataPc[5]                 FCASCont.PwrAtDataPc[6]                 
   0                                       0                                       -100                                    -100                                    -100                                    
@!/FCASCont.PwrAtDataPc[7]                 FCASCont.PwrAtDataPc[8]                 FCASCont.PwrAtDataPc[9]                 FCASCont.PwrAtDataPc[10]                FCASCont.SlowActTm                      
   -100                                    -100                                    -100                                    -100                                    6                                       
@!/FCASCont.SlowDelTm                      FixCosPhi.CosPhiExtModExp               FixCosPhi.CosPhiExtModImp               FixCosPhi.CosPhiLimLo                   FixCosPhi.ExtSpntMode                   
   300                                     1041                                    1041                                    0                                     1                                       
@!/FixCosPhi.PwrAtFilterTm                 FrqDroop.DroopMode                      FrqDroop.Ena                            FrqDroop.EnaPrioFrqResp                 FrqDroop.EnaRamp                        
   1                                       3                                       0                                       0                                       0                                       
@!/FrqDroop.EnaShiftPreFaultVal            FrqDroop.FrqOffsets[1]                  FrqDroop.FrqOffsets[2]                  FrqDroop.FrqOffsets[3]                  FrqDroop.FrqOffsets[4]                  
   0                                       -1.2                                    -0.015                                  0.0                                     0.015                                   
@!/FrqDroop.FrqOffsets[5]                  FrqDroop.FrqOffsets[6]                  FrqDroop.FrqOffsets[7]                  FrqDroop.FrqOffsets[8]                  FrqDroop.FrqOffsets[9]                  
   1.2                                     2.0                                     3.0                                     4.0                                     5.0                                     
@!/FrqDroop.FrqOffsets[10]                 FrqDroop.MaxPwrDecrease                 FrqDroop.MaxRelPwrIncrease              FrqDroop.MinHoldTm                      FrqDroop.MinPwrSpnt                     
   6.0                                     200                                     1000000                                 0.5                                     0                                       
@!/FrqDroop.OverFrqMode                    FrqDroop.PwrAtDataPc[1]                 FrqDroop.PwrAtDataPc[2]                 FrqDroop.PwrAtDataPc[3]                 FrqDroop.PwrAtDataPc[4]                 
   0                                       0                                       200                                     100                                     100                                     
@!/FrqDroop.PwrAtDataPc[5]                 FrqDroop.PwrAtDataPc[6]                 FrqDroop.PwrAtDataPc[7]                 FrqDroop.PwrAtDataPc[8]                 FrqDroop.PwrAtDataPc[9]                 
   100                                     0                                       0                                       0                                       0                                       
@!/FrqDroop.PwrAtDataPc[10]                FrqDroop.PwrAtRateMax                   FrqDroop.ResetFrqOffset[1]              FrqDroop.ResetFrqOffset[2]              FrqDroop.ResetMode                      
   0                                       6000                                    -0.015                                  0.015                                   2                                       
@!/FrqDroop.ResetTm                        FrqDroop.UnderFrqMode                   FrtDetection.Ena                        FrtDetection.FilterTm                   FrtDetection.PreFrtSamples              
   0                                       2                                       1                                       20                                      5                                       
@!/FrtDetection.RefMode                    FrtDetection.StopDelay                  FrtDetection.ThrsldMode                 FrtDetection.VtgLoLimPc                 FrtDetection.VtgUpLimPc                 
   0                                       0.2                                     1                                       82                                      121                                     
@!/GridService.EnaFrqRespForPv             GridService.EnaPrioBatFrqResp           GridService.FrqActDelay                 GridService.FrqEnaActFrt                GridService.FrqPoiCompFactor            
   1                                       0                                       0.25                                    0                                       0                                       
@!/GridService.FrqPoiDynMod                GridService.FrqPoiFilterTm              GridService.FrqPoiRateMax               GridService.FrqPreFaultValHoldTm        GridService.FrqUseBatPwr                
   1                                       0.05                                    4.0                                     1                                       1                                       
@!/GridService.OverFrqRefMode              GridService.PoiPwrAtCtrlMode            GridService.PwrApNomPoi                 GridService.PwrApPrioMode               GridService.PwrAtNomPoi                 
   0                                       3                                       127947                                  2                                       119000                                  
@!/GridService.PwrAtPoiFilterTm            GridService.PwrRtNomPoi                 GridService.PwrRtPoiFilterTm            GridService.UnderFrqRefMode             GridVtgCtrl.Ena                         
   0                                       90720                                   0                                       0                                       0                                       
@!/GridVtgCtrl.IntGain                     GridVtgCtrl.IntLimAwu                   GridVtgCtrl.PropGain                    GridVtgCtrl.VtgFilterTm                 PoCo.EnaOpenLoopSptDiff                 
   5                                       0.5                                     0                                       0                                       1                                       
@!/PoCo.K_I                                PoCo.K_P                                PoCo.OutMax                             PoCo.OutMin                             PoCo.OvershootReInitHystTicks           
   4                                       0                                       1                                       -1                                      10                                      
@!/PoCo.OvershootReInitHystWNom            PoCo.WGraMeasTarget                     PoCo.WGraOpenLoop                       PoCo.WGraTarget                         PoCo.WaitTmsDevAtLimit                  
   1                                       0.2                                     0.2                                     0.02                                    3                                       
@!/PvPwrAtCtrl.CtrlKi                      PvPwrAtCtrl.CtrlKp                      PvPwrAtCtrl.DynSpntSwitchHysPc          PvPwrAtCtrl.Ena                         PvPwrAtCtrl.EnaAdapCtrl                 
   1                                       0                                       0                                       0                                       0                                       
@!/PvPwrAtCtrl.EnaDynSpntSwitch            PvPwrAtCtrl.EnaStepReset                PvPwrAtCtrl.FeedForwardOffset           PvPwrAtCtrl.MeasFilterTm                PvPwrAtCtrl.OvershootResetPc            
   0                                       0                                       0                                       0                                       100                                     
@!/PvPwrAtCtrl.PiCtrlLimPc                 PvPwrAtCtrl.PilotControlGain            PvPwrAtCtrl.SpntDelaySamples            PvPwrAtCtrl.StepResetThrsldPc           PwrRt.PwrRtCtrlMode                     
   100                                     0                                       2                                       1                                       303                                    
@!/PwrRtCtrl.CtrlKi                        PwrRtCtrl.CtrlKp                        PwrRtCtrl.DynSpntSwitchHysPc            PwrRtCtrl.Ena                           PwrRtCtrl.EnaAdapCtrl                   
   2.5                                     0                                       0                                       1                                       1                                       
@!/PwrRtCtrl.EnaDynSpntSwitch              PwrRtCtrl.EnaStepReset                  PwrRtCtrl.FeedForwardOffset             PwrRtCtrl.MeasFilterTm                  PwrRtCtrl.OvershootResetPc              
   0                                       0                                       0                                       0                                       100                                     
@!/PwrRtCtrl.PiCtrlLimPc                   PwrRtCtrl.PilotControlGain              PwrRtCtrl.SpntDelaySamples              PwrRtCtrl.StepResetThrsldPc             PwrRtPwrAtLim.Ena                       
   100                                     1.0                                     3                                       1                                       0                                       
@!/PwrRtPwrAtLim.PwrAtFilterTm             PwrRtPwrAtLim.PwrAtLimHiPc[1]           PwrRtPwrAtLim.PwrAtLimHiPc[2]           PwrRtPwrAtLim.PwrAtLimHiPc[3]           PwrRtPwrAtLim.PwrAtLimHiPc[4]           
   0                                       0                                       50                                      70                                      100                                     
@!/PwrRtPwrAtLim.PwrAtLimHiPc[5]           PwrRtPwrAtLim.PwrAtLimHiPc[6]           PwrRtPwrAtLim.PwrAtLimHiPc[7]           PwrRtPwrAtLim.PwrAtLimHiPc[8]           PwrRtPwrAtLim.PwrAtLimHiPc[9]           
   101                                     102                                     103                                     104                                     105                                     
@!/PwrRtPwrAtLim.PwrAtLimHiPc[10]          PwrRtPwrAtLim.PwrAtLimLoPc[1]           PwrRtPwrAtLim.PwrAtLimLoPc[2]           PwrRtPwrAtLim.PwrAtLimLoPc[3]           PwrRtPwrAtLim.PwrAtLimLoPc[4]           
   106                                     0                                       50                                      70                                      100                                     
@!/PwrRtPwrAtLim.PwrAtLimLoPc[5]           PwrRtPwrAtLim.PwrAtLimLoPc[6]           PwrRtPwrAtLim.PwrAtLimLoPc[7]           PwrRtPwrAtLim.PwrAtLimLoPc[8]           PwrRtPwrAtLim.PwrAtLimLoPc[9]           
   101                                     102                                     103                                     104                                     105                                     
@!/PwrRtPwrAtLim.PwrAtLimLoPc[10]          PwrRtPwrAtLim.PwrRtLimHiPc[1]           PwrRtPwrAtLim.PwrRtLimHiPc[2]           PwrRtPwrAtLim.PwrRtLimHiPc[3]           PwrRtPwrAtLim.PwrRtLimHiPc[4]           
   106                                     60                                      60                                      40                                      40                                      
@!/PwrRtPwrAtLim.PwrRtLimHiPc[5]           PwrRtPwrAtLim.PwrRtLimHiPc[6]           PwrRtPwrAtLim.PwrRtLimHiPc[7]           PwrRtPwrAtLim.PwrRtLimHiPc[8]           PwrRtPwrAtLim.PwrRtLimHiPc[9]           
   40                                      40                                      40                                      40                                      40                                      
@!/PwrRtPwrAtLim.PwrRtLimHiPc[10]          PwrRtPwrAtLim.PwrRtLimLoPc[1]           PwrRtPwrAtLim.PwrRtLimLoPc[2]           PwrRtPwrAtLim.PwrRtLimLoPc[3]           PwrRtPwrAtLim.PwrRtLimLoPc[4]           
   40                                      -60                                     -60                                     -60                                     -60                                     
@!/PwrRtPwrAtLim.PwrRtLimLoPc[5]           PwrRtPwrAtLim.PwrRtLimLoPc[6]           PwrRtPwrAtLim.PwrRtLimLoPc[7]           PwrRtPwrAtLim.PwrRtLimLoPc[8]           PwrRtPwrAtLim.PwrRtLimLoPc[9]           
   -60                                     -60                                     -60                                     -60                                     -60                                     
@!/PwrRtPwrAtLim.PwrRtLimLoPc[10]          SpntRamp.EnaPwrAtRampTm                 SpntRamp.BatPwrAtRiseRateMax            SpntRamp.PvPwrAtRiseRateMax             SpntRamp.PwrAtRampTm                    
   -60                                     0                                       100                                     100                                     300                                     
@!/SpntRamp.PwrAtRateMax                   SpntRamp.PwrAtResetThrsldPc             SpntRamp.PwrAtSpntFilterTm              SpntRamp.PwrRtRateMax                   SpntRamp.PwrRtSpntFilterTm              
   15000                                   100                                     0.1                                    15000                                   0.1                                       
@!/VtgPwrRtDroop.PwrRtDataPcDbHi           VtgPwrRtDroop.PwrRtDataPcDbLo           VtgPwrRtDroop.PwrRtDataPc[1]            VtgPwrRtDroop.PwrRtDataPc[2]            VtgPwrRtDroop.PwrRtDataPc[3]            
   0                                       0                                       200                                     200                                     200                                     
@!/VtgPwrRtDroop.PwrRtDataPc[4]            VtgPwrRtDroop.PwrRtDataPc[5]            VtgPwrRtDroop.PwrRtDataPc[6]            VtgPwrRtDroop.PwrRtDataPc[7]            VtgPwrRtDroop.PwrRtDataPc[8]            
   200                                     100                                     -100                                    -200                                    -200                                    
@!/VtgPwrRtDroop.PwrRtDataPc[9]            VtgPwrRtDroop.PwrRtDataPc[10]           VtgPwrRtDroop.SpntSrc                   VtgPwrRtDroop.VtgBreakpoints[1]         VtgPwrRtDroop.VtgBreakpoints[2]         
   -200                                    -200                                    2                                       -12                                      -11                                      
@!/VtgPwrRtDroop.VtgBreakpoints[3]         VtgPwrRtDroop.VtgBreakpoints[4]         VtgPwrRtDroop.VtgBreakpoints[5]         VtgPwrRtDroop.VtgBreakpoints[6]         VtgPwrRtDroop.VtgBreakpoints[7]         
   -10                                     -8                                     -4                                       4                                       8                                       
@!/VtgPwrRtDroop.VtgBreakpoints[8]         VtgPwrRtDroop.VtgBreakpoints[9]         VtgPwrRtDroop.VtgBreakpoints[10]        VtgPwrRtDroop.VtgFilterTm               VtgPwrRtDroop.VtgSpntFilterTm           
   10                                      11                                      12                                       0                                       0                                       
 
/ SMASC_G190
@!/PV_BUSNO                                MODEL                                   MCHID                                   ModelName                               IC                                      
   334094                                  'USRMDL'                                1                                       'SMASC190'                              1                                       
@!/IT                                      NoOfICONS                               NoOfCONS                                NoOfStates                              NoOfVars                                
   1                                       1                                       200                                     60                                      300                                     
@!/SlackBusNumber                          Pprim                                   PWNom                                   QVArNom                                 PFLim                                   
   10000                                   1                                       1                                       0                                       0.8                                     
@!/PFPF                                    PFPFExt                                 QVArMod                                 QoDEna                                  QoDQMax                                 
   0.8                                     0                                       1                                       0                                       0.6                                     
@!/VarCtlVol_Volref                        VarCtlVol_VolDB                         VarCtlVol_VarGra                        VarCtlVol_VarMax                        VarCtlVol_VarTm                         
   1                                       0                                       5                                       0.5                                     2                                       
@!/PFPFExtStr                              PFPFStr                                 PFWStr                                  PFPFExtStop                             PFPFStop                                
   0                                       0.9                                     0.5                                     1                                       0.9                                     
@!/PFWStop                                 WctlHzMod                               PHzStr                                  PhzStop                                 PWGra                                   
   0.9                                     0                                       0.2                                     0.05                                    0.4                                     
@!/Wgra                                    VarGra                                  FRTMod                                  FRTArGraNom                             FRTArGraNomHi                           
   1                                       2                                       2                                       0                                       6                                       
@!/FRTArGraNomLo                           FRTDbVolMax                             FRTDbVolMaxHyst                         FRTDbVolMin                             FRTDbVolMinHyst                         
   6                                       0.24                                    0.22                                    0.15                                    0.13                                    
@!/FRT_AmpDGra                             Reserved                                VarCmdFilTm                             FRT_VolFilMod                           FRT_VolDFilTm                           
   10                                      1                                       0.01                                    0                                       20                                    
@!/FRT_WaitTm                              FRT_AmpQGra                             FRTSpkMtgLo                             FRTSpkMtgHi                             Reserved                                
   0.02                                    1.4142                                  0.0                                     0.0                                     0                                       
@!/Reserved                                Reserved                                VCtl_Hi5Lim                             VCtl_Hi5LimTm                           VCtl_Hi4Lim                             
   0.125                                   0.1                                     1.3                                     0.3                                     1.3                                    