10000 'GENCLS' 1 0 0/

/ Transformer OLTC Model
273541,'OLTC1T',273530,1,60,0.5,5 /

/ SMAHYCF-G20
@!/BUSNO                                   MODEL                                   ModelName                               IC                                      IT                                      
   273540                                  'USRBUS'                                'SMAHYCF20'                             504                                     0                                       
@!/NoOfICONS                               NoOfCONS                                NoOfStates                              NoOfVars                                RBus                                    
   34                                      252                                     10                                      404                                     273540                                     
@!/FrobusPCC                               ToBusPCC                                CID                                     FrtBusNumber                            PowerFlowReverse                        
   273540                                  273541                                  -1                                      0                                       1                                       
@!/Reserved                                OUTPUT_LOG_EN                           Reserved                                SysCfg                                  PV1_Fro_Bus                             
   0                                       0                                       0                                       3                                       273501                                     
@!/PV1_To_Bus                              CID_PV1                                 PV2_Fro_Bus                             PV2_To_Bus                              CID_PV2                                 
   273531                                  -1                                      0                                       0                                       -1                                      
@!/PV3_Fro_Bus                             PV3_To_Bus                              CID_PV3                                 PV4_Fro_Bus                             PV4_To_Bus                              
   0                                       0                                       -1                                      0                                       0                                       
@!/CID_PV4                                 BESS1_Fro_Bus                           BESS1_To_Bus                            CID_BESS1                               BESS2_Fro_Bus                           
   -1                                      273502                                  273532                                  -1                                      0                                       
@!/BESS2_To_Bus                            CID_BESS2                               BESS3_Fro_Bus                           BESS3_To_Bus                            CID_BESS3                               
   0                                       -1                                      0                                       0                                       -1                                      
@!/BESS4_Fro_Bus                           BESS4_To_Bus                            CID_BESS4                               CycleTime                               Poi_freq_flt_tm                         
   0                                       0                                       -1                                      40                                      0.02                                    
@!/Poi_power_flt_tm                        Poi_Base_KV                             HyconToInv_AtPwr_TmDelay                HyconToInv_RtPwr_TmDelay                PvPwrAtMaxTot                           
   0.02                                    132000                                  0.02                                    0.02                                    100800                                  
@!/PvPwrRtMaxTot                           PvPwrApMaxTot                           BESSPwrAtMaxTot                         BESSPwrRtMaxTot                         BESSPwrApMaxTot                         
   60480                                   100800                                  75600                                   45360                                   75600                                  
@!/Reserved                                ExtPwrApLim                             ExtPwrAtLimHi                           ExtPwrAtLimLo                           PwrAtLimSale                            
   1                                       100800                                  90000                                   -50000                                  90000                                  
@!/ExtPwrRtLimHi                           ExtPwrRtLimLo                           QVARScale                               Reserved                                Reserved                                
   35550                                   -35550                                  0.6                                     0                                       0                                       
@!/Reserved                                Reserved                                BatPwrAtCtrl.CtrlKi                     BatPwrAtCtrl.CtrlKp                     BatPwrAtCtrl.DynSpntSwitchHysPc         
   0                                       0                                       1.25                                    0                                       0                                       
@!/BatPwrAtCtrl.Ena                        BatPwrAtCtrl.EnaAdapCtrl                BatPwrAtCtrl.EnaDynSpntSwitch           BatPwrAtCtrl.EnaStepReset               BatPwrAtCtrl.FeedForwardOffset          
   1                                       1                                       0                                       0                                       0                                       
@!/BatPwrAtCtrl.MeasFilterTm               BatPwrAtCtrl.OvershootResetPc           BatPwrAtCtrl.PiCtrlLimPc                BatPwrAtCtrl.PilotControlGain           BatPwrAtCtrl.SpntDelaySamples           
   0                                       100                                     100                                     0                                       0                                       
@!/BatPwrAtCtrl.StepResetThrsldPc          Dispatch.EnaPrioBatPwrAt                Dispatch.PvBatSpntSplitPc               Dispatch.PwrRtDispatchMode              EgyShift.ChrFromPvSpntLimPc             
   20                                      1                                       50                                      0                                       50                                      
@!/EgyShift.DisBatSpntLimPc                FCASCont.DelayedActTm                   FCASCont.DelayedDelTm                   FCASCont.Ena                            FCASCont.EnaDelayedLower                
   10                                      60                                      600                                     0                                       1                                       
@!/FCASCont.EnaDelayedRaise                FCASCont.EnaFastLower                   FCASCont.EnaFastRaise                   FCASCont.EnaSlowLower                   FCASCont.EnaSlowRaise                   
   1                                       1                                       1                                       1                                       1                                       
@!/FCASCont.FastDelTm                      FCASCont.FrqOffsets[1]                  FCASCont.FrqOffsets[2]                  FCASCont.FrqOffsets[3]                  FCASCont.FrqOffsets[4]                  
   60                                      1.6                                     -1                                      -0.15                                   0.15                                    
@!/FCASCont.FrqOffsets[5]                  FCASCont.FrqOffsets[6]                  FCASCont.FrqOffsets[7]                  FCASCont.FrqOffsets[8]                  FCASCont.FrqOffsets[9]                  
   1                                       1.1                                     1.2                                     1.3                                     1.4                                     
@!/FCASCont.FrqOffsets[10]                 FCASCont.FrqRecoverOffsets[1]           FCASCont.FrqRecoverOffsets[2]           FCASCont.PwrAtDataPc[1]                 FCASCont.PwrAtDataPc[2]                 
   1.5                                     -0.1                                    0.1                                     -100                                    100                                     
@!/FCASCont.PwrAtDataPc[3]                 FCASCont.PwrAtDataPc[4]                 FCASCont.PwrAtDataPc[5]                 FCASCont.PwrAtDataPc[6]                 FCASCont.PwrAtDataPc[7]                 
   0                                       0                                       -100                                    -100                                    -100                                    
@!/FCASCont.PwrAtDataPc[8]                 FCASCont.PwrAtDataPc[9]                 FCASCont.PwrAtDataPc[10]                FCASCont.SlowActTm                      FCASCont.SlowDelTm                      
   -100                                    -100                                    -100                                    6                                       300                                     
@!/FixCosPhi.CosPhiExtModExp               FixCosPhi.CosPhiExtModImp               FixCosPhi.CosPhiLimLo                   FixCosPhi.ExtSpntMode                   FixCosPhi.PwrAtFilterTm                 
   1041                                    1041                                    0.8                                     1                                       1                                       
@!/FrqDroop.ActDelay                       FrqDroop.DroopMode                      FrqDroop.Ena                            FrqDroop.EnaActFrt                      FrqDroop.EnaPrioFrqResp                 
   0.0                                     3                                       1                                       0                                       0                                       
@!/FrqDroop.EnaRamp                        FrqDroop.EnaShiftPreFaultVal            FrqDroop.FrqOffsets[1]                  FrqDroop.FrqOffsets[2]                  FrqDroop.FrqOffsets[3]                  
   0                                       0                                       -2.015                                  -0.015                                  0                                       
@!/FrqDroop.FrqOffsets[4]                  FrqDroop.FrqOffsets[5]                  FrqDroop.FrqOffsets[6]                  FrqDroop.FrqOffsets[7]                  FrqDroop.FrqOffsets[8]                  
   0.015                                   2.015                                   2.1                                     2.2                                     2.3                                     
@!/FrqDroop.FrqOffsets[9]                  FrqDroop.FrqOffsets[10]                 FrqDroop.MaxPwrDecrease                 FrqDroop.MaxRelPwrIncrease              FrqDroop.MinHoldTm                      
   2.4                                     2.5                                     100                                     100                                     0.5                                     
@!/FrqDroop.MinPwrSpnt                     FrqDroop.OverFrqMode                    FrqDroop.PwrAtDataPc[1]                 FrqDroop.PwrAtDataPc[2]                 FrqDroop.PwrAtDataPc[3]                 
   -55.56                                  2                                       200                                     100                                     100                                     
@!/FrqDroop.PwrAtDataPc[4]                 FrqDroop.PwrAtDataPc[5]                 FrqDroop.PwrAtDataPc[6]                 FrqDroop.PwrAtDataPc[7]                 FrqDroop.PwrAtDataPc[8]                 
   100                                     0                                       0                                       0                                       0                                       
@!/FrqDroop.PwrAtDataPc[9]                 FrqDroop.PwrAtDataPc[10]                FrqDroop.PwrAtRateMax                   FrqDroop.ResetFrqOffset[1]              FrqDroop.ResetFrqOffset[2]              
   0                                       0                                       6000                                    -0.015                                  0.015                                   
@!/FrqDroop.ResetMode                      FrqDroop.ResetTm                        FrqDroop.UnderFrqMode                   FrqDroop.UseBatPwr                      FrtDetection.Ena                        
   1                                       0                                       2                                       1                                       1                                       
@!/FrtDetection.FilterTm                   FrtDetection.PreFrtSamples              FrtDetection.RefMode                    FrtDetection.StopDelay                  FrtDetection.ThrsldMode                 
   1                                       5                                       0                                       0.2                                     1                                       
@!/FrtDetection.VtgLoLimPc                 FrtDetection.VtgUpLimPc                 GridService.EnaFrqRespForPv             GridService.EnaPrioBatFrqResp           GridService.FrqPoiCompFactor            
   80                                      120                                     0                                       0                                       0                                       
@!/GridService.FrqPoiDynMod                GridService.FrqPoiFilterTm              GridService.FrqPoiRateMax               GridService.PoiPwrAtCtrlMode            GridService.PwrApNomPoi                 
   1                                       0.05                                    0.04                                    3                                       96767                                  
@!/GridService.PwrApPrioMode               GridService.PwrAtNomPoi                 GridService.PwrAtPoiFilterTm            GridService.PwrRtNomPoi                 GridService.PwrRtPoiFilterTm            
   2                                       90000                                   0                                       35550                                   0                                       
@!/GridVtgCtrl.Ena                         GridVtgCtrl.IntGain                     GridVtgCtrl.IntLimAwu                   GridVtgCtrl.PropGain                    GridVtgCtrl.VtgFilterTm                 
   0                                       5                                       0.5                                     0                                       0                                       
@!/PvPwrAtCtrl.CtrlKi                      PvPwrAtCtrl.CtrlKp                      PvPwrAtCtrl.DynSpntSwitchHysPc          PvPwrAtCtrl.Ena                         PvPwrAtCtrl.EnaAdapCtrl                 
   1.7                                     0                                       0                                       1                                       1                                       
@!/PvPwrAtCtrl.EnaDynSpntSwitch            PvPwrAtCtrl.EnaStepReset                PvPwrAtCtrl.FeedForwardOffset           PvPwrAtCtrl.MeasFilterTm                PvPwrAtCtrl.OvershootResetPc            
   0                                       0                                       0                                       0                                       100                                     
@!/PvPwrAtCtrl.PiCtrlLimPc                 PvPwrAtCtrl.PilotControlGain            PvPwrAtCtrl.SpntDelaySamples            PvPwrAtCtrl.StepResetThrsldPc           PwrRt.PwrRtCtrlMode                     
   100                                     0                                       0                                       100                                     1074                                    
@!/PwrRtCtrl.CtrlKi                        PwrRtCtrl.CtrlKp                        PwrRtCtrl.DynSpntSwitchHysPc            PwrRtCtrl.Ena                           PwrRtCtrl.EnaAdapCtrl                   
   1                                       0                                       0                                       1                                       1                                       
@!/PwrRtCtrl.EnaDynSpntSwitch              PwrRtCtrl.EnaStepReset                  PwrRtCtrl.FeedForwardOffset             PwrRtCtrl.MeasFilterTm                  PwrRtCtrl.OvershootResetPc              
   0                                       0                                       0                                       0                                       100                                     
@!/PwrRtCtrl.PiCtrlLimPc                   PwrRtCtrl.PilotControlGain              PwrRtCtrl.SpntDelaySamples              PwrRtCtrl.StepResetThrsldPc             PwrRtPwrAtLim.Ena                       
   100                                     0                                       0                                       20                                      0                                       
@!/PwrRtPwrAtLim.PwrAtFilterTm             PwrRtPwrAtLim.PwrAtLimHiPc[1]           PwrRtPwrAtLim.PwrAtLimHiPc[2]           PwrRtPwrAtLim.PwrAtLimHiPc[3]           PwrRtPwrAtLim.PwrAtLimHiPc[4]           
   0                                       0                                       50                                      70                                      100                                     
@!/PwrRtPwrAtLim.PwrAtLimHiPc[5]           PwrRtPwrAtLim.PwrAtLimHiPc[6]           PwrRtPwrAtLim.PwrAtLimHiPc[7]           PwrRtPwrAtLim.PwrAtLimHiPc[8]           PwrRtPwrAtLim.PwrAtLimHiPc[9]           
   101                                     102                                     103                                     104                                     105                                     
@!/PwrRtPwrAtLim.PwrAtLimHiPc[10]          PwrRtPwrAtLim.PwrAtLimLoPc[1]           PwrRtPwrAtLim.PwrAtLimLoPc[2]           PwrRtPwrAtLim.PwrAtLimLoPc[3]           PwrRtPwrAtLim.PwrAtLimLoPc[4]           
   106                                     0                                       50                                      70                                      100                                     
@!/PwrRtPwrAtLim.PwrAtLimLoPc[5]           PwrRtPwrAtLim.PwrAtLimLoPc[6]           PwrRtPwrAtLim.PwrAtLimLoPc[7]           PwrRtPwrAtLim.PwrAtLimLoPc[8]           PwrRtPwrAtLim.PwrAtLimLoPc[9]           
   101                                     102                                     103                                     104                                     105                                     
@!/PwrRtPwrAtLim.PwrAtLimLoPc[10]          PwrRtPwrAtLim.PwrRtLimHiPc[1]           PwrRtPwrAtLim.PwrRtLimHiPc[2]           PwrRtPwrAtLim.PwrRtLimHiPc[3]           PwrRtPwrAtLim.PwrRtLimHiPc[4]           
   106                                     60                                      60                                      40                                      40                                      
@!/PwrRtPwrAtLim.PwrRtLimHiPc[5]           PwrRtPwrAtLim.PwrRtLimHiPc[6]           PwrRtPwrAtLim.PwrRtLimHiPc[7]           PwrRtPwrAtLim.PwrRtLimHiPc[8]           PwrRtPwrAtLim.PwrRtLimHiPc[9]           
   40                                      40                                      40                                      40                                      40                                      
@!/PwrRtPwrAtLim.PwrRtLimHiPc[10]          PwrRtPwrAtLim.PwrRtLimLoPc[1]           PwrRtPwrAtLim.PwrRtLimLoPc[2]           PwrRtPwrAtLim.PwrRtLimLoPc[3]           PwrRtPwrAtLim.PwrRtLimLoPc[4]           
   40                                      -60                                     -60                                     -60                                     -60                                     
@!/PwrRtPwrAtLim.PwrRtLimLoPc[5]           PwrRtPwrAtLim.PwrRtLimLoPc[6]           PwrRtPwrAtLim.PwrRtLimLoPc[7]           PwrRtPwrAtLim.PwrRtLimLoPc[8]           PwrRtPwrAtLim.PwrRtLimLoPc[9]           
   -60                                     -60                                     -60                                     -60                                     -60                                     
@!/PwrRtPwrAtLim.PwrRtLimLoPc[10]          SpntRamp.EnaPwrAtRampTm                 SpntRamp.BatPwrAtRiseRateMax            SpntRamp.PvPwrAtRiseRateMax             SpntRamp.PwrAtRampTm                    
   -60                                     0                                       100                                     100                                     300                                     
@!/SpntRamp.PwrAtRateMax                   SpntRamp.PwrAtResetThrsldPc             SpntRamp.PwrAtSpntFilterTm              SpntRamp.PwrRtRateMax                   SpntRamp.PwrRtSpntFilterTm              
   6000                                    5                                       0.1                                     6000                                    0.1                                       
@!/VtgPwrRtDroop.PwrRtDataPcDbHi           VtgPwrRtDroop.PwrRtDataPcDbLo           VtgPwrRtDroop.PwrRtDataPc[1]            VtgPwrRtDroop.PwrRtDataPc[2]            VtgPwrRtDroop.PwrRtDataPc[3]            
   0                                       0                                       200                                     200                                     200                                     
@!/VtgPwrRtDroop.PwrRtDataPc[4]            VtgPwrRtDroop.PwrRtDataPc[5]            VtgPwrRtDroop.PwrRtDataPc[6]            VtgPwrRtDroop.PwrRtDataPc[7]            VtgPwrRtDroop.PwrRtDataPc[8]            
   200                                     100                                     -100                                    -200                                    -200                                    
@!/VtgPwrRtDroop.PwrRtDataPc[9]            VtgPwrRtDroop.PwrRtDataPc[10]           VtgPwrRtDroop.SpntSrc                   VtgPwrRtDroop.VtgBreakpoints[1]         VtgPwrRtDroop.VtgBreakpoints[2]         
   -200                                    -200                                    2                                       -12                                      -11                                      
@!/VtgPwrRtDroop.VtgBreakpoints[3]         VtgPwrRtDroop.VtgBreakpoints[4]         VtgPwrRtDroop.VtgBreakpoints[5]         VtgPwrRtDroop.VtgBreakpoints[6]         VtgPwrRtDroop.VtgBreakpoints[7]         
   -10.5                                   -10                                     -5                                      5                                       10                                       
@!/VtgPwrRtDroop.VtgBreakpoints[8]         VtgPwrRtDroop.VtgBreakpoints[9]         VtgPwrRtDroop.VtgBreakpoints[10]        VtgPwrRtDroop.VtgFilterTm               VtgPwrRtDroop.VtgSpntFilterTm           
   10.5                                    11                                      12                                       0                                       0                                       
 
/ SMASC_G189
@!/PV_BUSNO                                MODEL                                   MCHID                                   ModelName                               IC                                      
   273501                                  'USRMDL'                                1                                       'SMASC190'                              1                                       
@!/IT                                      NoOfICONS                               NoOfCONS                                NoOfStates                              NoOfVars                                
   1                                       1                                       200                                     60                                      300                                     
@!/SlackBusNumber                          Pprim                                   PWNom                                   QVArNom                                 PFLim                                   
   10000                                   1                                       1                                       0                                       0.8                                     
@!/PFPF                                    PFPFExt                                 QVArMod                                 QoDEna                                  QoDQMax                                 
   0.8                                     0                                       1                                       0                                       0.6                                     
@!/VarCtlVol_Volref                        VarCtlVol_VolDB                         VarCtlVol_VarGra                        VarCtlVol_VarMax                        VarCtlVol_VarTm                         
   1                                       0                                       5                                       0.5                                     2                                       
@!/PFPFExtStr                              PFPFStr                                 PFWStr                                  PFPFExtStop                             PFPFStop                                
   0                                       0.9                                     0.5                                     1                                       0.9                                     
@!/PFWStop                                 WctlHzMod                               PHzStr                                  PhzStop                                 PWGra                                   
   0.9                                     0                                       0.2                                     0.05                                    0.5                                     
@!/Wgra                                    VarGra                                  FRTMod                                  FRTArGraNom                             FRTArGraNomHi                           
   1                                       1                                       2                                       2                                       2                                       
@!/FRTArGraNomLo                           FRTDbVolMax                             FRTDbVolMaxHyst                         FRTDbVolMin                             FRTDbVolMinHyst                         
   2                                       0.15                                    0.13                                    0.15                                    0.13                                    
@!/FRT_AmpDGra                             Reserved                                VarCmdFilTm                             FRT_VolFilMod                           FRT_VolDFilTm                           
   10                                      1                                       0.01                                    0                                       0.04                                    
@!/FRT_WaitTm                              FRT_AmpQGra                             FRTSpkMtgLo                             FRTSpkMtgHi                             Reserved                                
   0.02                                    10                                      0.85                                    0.86                                    0                                       
@!/Reserved                                Reserved                                VCtl_Hi5Lim                             VCtl_Hi5LimTm                           VCtl_Hi4Lim                             
   0.125                                   0.1                                     1.3                                     0.3                                     1.3                                    
@!/VCtl_Hi4LimTm                           VCtl_Hi3Lim                             VCtl_Hi3LimTm                           VCtl_Hi2Lim                             VCtl_Hi2LimTm                           
   0.3                                     1.3                                     0.3                                     1.25                                    1                                       
@!/VCtl_Hi1Lim                             VCtl_Hi1LimTm                           VCtl_Lo1Lim                             VCtl_Lo1LimTm                           VCtl_Lo2Lim                             
   1.2                                     25                                      0.8                                     11                                      0.77                                    